11494412
  -OEChem-08272418143D

 47 52  0     1  0  0  0  0  0999 V2000
    0.5904    3.6910   -1.4869 O   0  0  0  0  0  0  0  0  0  0  0  0
   -2.8916    3.0015    1.4376 O   0  0  0  0  0  0  0  0  0  0  0  0
    3.0518    0.7965    0.5242 N   0  0  0  0  0  0  0  0  0  0  0  0
   -1.2029    3.6526   -0.0149 N   0  0  0  0  0  0  0  0  0  0  0  0
   -4.2739   -0.4257   -0.7755 N   0  0  0  0  0  0  0  0  0  0  0  0
   -0.3055    1.5905   -0.6404 C   0  0  2  0  0  0  0  0  0  0  0  0
   -1.3545    1.3758    0.4754 C   0  0  2  0  0  0  0  0  0  0  0  0
    1.0143    1.0209   -0.3004 C   0  0  0  0  0  0  0  0  0  0  0  0
    2.7703   -0.3687   -0.1401 C   0  0  0  0  0  0  0  0  0  0  0  0
    1.4998   -0.2667   -0.6772 C   0  0  0  0  0  0  0  0  0  0  0  0
    1.9976    1.6531    0.4414 C   0  0  0  0  0  0  0  0  0  0  0  0
    4.3400    0.9772    1.1731 C   0  0  0  0  0  0  0  0  0  0  0  0
    3.6117   -1.4749   -0.2539 C   0  0  0  0  0  0  0  0  0  0  0  0
   -2.4128    0.4198    0.0879 C   0  0  0  0  0  0  0  0  0  0  0  0
    4.9798   -0.3813    1.5385 C   0  0  0  0  0  0  0  0  0  0  0  0
    4.9729   -1.4043    0.3746 C   0  0  0  0  0  0  0  0  0  0  0  0
   -0.2152    3.0934   -0.7876 C   0  0  0  0  0  0  0  0  0  0  0  0
   -1.9400    2.7503    0.7119 C   0  0  0  0  0  0  0  0  0  0  0  0
    1.0127   -1.3620   -1.4128 C   0  0  0  0  0  0  0  0  0  0  0  0
   -2.4424   -0.9731    0.3749 C   0  0  0  0  0  0  0  0  0  0  0  0
    3.1182   -2.5453   -1.0022 C   0  0  0  0  0  0  0  0  0  0  0  0
   -3.5515    0.7268   -0.6198 C   0  0  0  0  0  0  0  0  0  0  0  0
    1.8377   -2.4910   -1.5674 C   0  0  0  0  0  0  0  0  0  0  0  0
   -3.6206   -1.4799   -0.1777 C   0  0  0  0  0  0  0  0  0  0  0  0
   -1.5779   -1.8547    1.0539 C   0  0  0  0  0  0  0  0  0  0  0  0
   -3.9789   -2.8295   -0.0849 C   0  0  0  0  0  0  0  0  0  0  0  0
   -1.9235   -3.2073    1.1548 C   0  0  0  0  0  0  0  0  0  0  0  0
   -3.1060   -3.6850    0.5934 C   0  0  0  0  0  0  0  0  0  0  0  0
   -0.6534    1.2010   -1.6063 H   0  0  0  0  0  0  0  0  0  0  0  0
   -0.8866    1.0686    1.4200 H   0  0  0  0  0  0  0  0  0  0  0  0
    2.0294    2.6268    0.9118 H   0  0  0  0  0  0  0  0  0  0  0  0
    4.1869    1.5856    2.0701 H   0  0  0  0  0  0  0  0  0  0  0  0
    4.9729    1.5267    0.4677 H   0  0  0  0  0  0  0  0  0  0  0  0
    4.4189   -0.8112    2.3798 H   0  0  0  0  0  0  0  0  0  0  0  0
    6.0063   -0.2257    1.8887 H   0  0  0  0  0  0  0  0  0  0  0  0
    5.2669   -2.3879    0.7575 H   0  0  0  0  0  0  0  0  0  0  0  0
    5.7002   -1.1030   -0.3881 H   0  0  0  0  0  0  0  0  0  0  0  0
   -1.3746    4.6515    0.0161 H   0  0  0  0  0  0  0  0  0  0  0  0
    0.0253   -1.3451   -1.8640 H   0  0  0  0  0  0  0  0  0  0  0  0
    3.7276   -3.4335   -1.1487 H   0  0  0  0  0  0  0  0  0  0  0  0
   -3.9175    1.6555   -1.0357 H   0  0  0  0  0  0  0  0  0  0  0  0
    1.4720   -3.3394   -2.1410 H   0  0  0  0  0  0  0  0  0  0  0  0
   -5.1581   -0.4939   -1.2601 H   0  0  0  0  0  0  0  0  0  0  0  0
   -0.6539   -1.4997    1.5010 H   0  0  0  0  0  0  0  0  0  0  0  0
   -4.8992   -3.2024   -0.5217 H   0  0  0  0  0  0  0  0  0  0  0  0
   -1.2606   -3.8915    1.6777 H   0  0  0  0  0  0  0  0  0  0  0  0
   -3.3547   -4.7394    0.6836 H   0  0  0  0  0  0  0  0  0  0  0  0
  1 17  2  0  0  0  0
  2 18  2  0  0  0  0
  3  9  1  0  0  0  0
  3 11  1  0  0  0  0
  3 12  1  0  0  0  0
  4 17  1  0  0  0  0
  4 18  1  0  0  0  0
  4 38  1  0  0  0  0
  5 22  1  0  0  0  0
  5 24  1  0  0  0  0
  5 43  1  0  0  0  0
  6  7  1  0  0  0  0
  6  8  1  0  0  0  0
  6 17  1  0  0  0  0
  6 29  1  0  0  0  0
  7 14  1  0  0  0  0
  7 18  1  0  0  0  0
  7 30  1  0  0  0  0
  8 10  1  0  0  0  0
  8 11  2  0  0  0  0
  9 10  1  0  0  0  0
  9 13  2  0  0  0  0
 10 19  2  0  0  0  0
 11 31  1  0  0  0  0
 12 15  1  0  0  0  0
 12 32  1  0  0  0  0
 12 33  1  0  0  0  0
 13 16  1  0  0  0  0
 13 21  1  0  0  0  0
 14 20  1  0  0  0  0
 14 22  2  0  0  0  0
 15 16  1  0  0  0  0
 15 34  1  0  0  0  0
 15 35  1  0  0  0  0
 16 36  1  0  0  0  0
 16 37  1  0  0  0  0
 19 23  1  0  0  0  0
 19 39  1  0  0  0  0
 20 24  1  0  0  0  0
 20 25  2  0  0  0  0
 21 23  2  0  0  0  0
 21 40  1  0  0  0  0
 22 41  1  0  0  0  0
 23 42  1  0  0  0  0
 24 26  2  0  0  0  0
 25 27  1  0  0  0  0
 25 44  1  0  0  0  0
 26 28  1  0  0  0  0
 26 45  1  0  0  0  0
 27 28  2  0  0  0  0
 27 46  1  0  0  0  0
 28 47  1  0  0  0  0
M  END
> <PUBCHEM_COMPOUND_CID>
11494412

> <PUBCHEM_CONFORMER_RMSD>
0.8

> <PUBCHEM_CONFORMER_DIVERSEORDER>
1
10
4
11
14
3
13
12
6
5
7
2
9
8

> <PUBCHEM_MMFF94_PARTIAL_CHARGES>
36
1 -0.57
11 -0.3
12 0.26
13 -0.14
14 -0.18
16 0.14
17 0.57
18 0.57
19 -0.15
2 -0.57
21 -0.15
22 -0.3
23 -0.15
24 -0.15
25 -0.15
26 -0.15
27 -0.15
28 -0.15
3 0.05
31 0.15
38 0.37
39 0.15
4 -0.49
40 0.15
41 0.15
42 0.15
43 0.27
44 0.15
45 0.15
46 0.15
47 0.15
5 0.03
6 0.24
7 0.24
8 -0.18
9 -0.15

> <PUBCHEM_EFFECTIVE_ROTOR_COUNT>
3.2

> <PUBCHEM_PHARMACOPHORE_FEATURES>
12
1 1 acceptor
1 2 acceptor
1 3 cation
1 4 donor
1 5 cation
1 5 donor
5 3 8 9 10 11 rings
5 4 6 7 17 18 rings
5 5 14 20 22 24 rings
6 20 24 25 26 27 28 rings
6 3 9 12 13 15 16 rings
6 9 10 13 19 21 23 rings

> <PUBCHEM_HEAVY_ATOM_COUNT>
28

> <PUBCHEM_ATOM_DEF_STEREO_COUNT>
2

> <PUBCHEM_ATOM_UDEF_STEREO_COUNT>
0

> <PUBCHEM_BOND_DEF_STEREO_COUNT>
0

> <PUBCHEM_BOND_UDEF_STEREO_COUNT>
0

> <PUBCHEM_ISOTOPIC_ATOM_COUNT>
0

> <PUBCHEM_COMPONENT_COUNT>
1

> <PUBCHEM_CACTVS_TAUTO_COUNT>
8

> <PUBCHEM_CONFORMER_ID>
00AF640C00000001

> <PUBCHEM_MMFF94_ENERGY>
53.798

> <PUBCHEM_FEATURE_SELFOVERLAP>
61.212

> <PUBCHEM_SHAPE_FINGERPRINT>
10366900 7 18202279208467565592
10906281 52 18339654403187369501
1100329 8 18408892849907214233
11115154 58 17702357664926009749
11578080 2 14547090232727719497
11828532 37 17607804212902315611
12363563 72 18261681479209298970
12422481 6 18057067751928440531
12553582 1 18265918980074590607
12633257 1 18195243309202444178
13140716 1 18268151044561186097
13402501 40 18412821391298436842
1361 2 15960899836179274051
138480 1 15671260225058081413
140371 6 18411141359306744645
14081887 123 18410006603124564138
14178342 30 18341341023790496441
14223421 5 18272369729027184374
14725015 67 18123191199764789831
14866123 147 18123474882454352427
17980427 26 16680597696132601044
19591789 44 17545614348621478283
20600515 1 17895187831064038294
20642791 13 18271523109564196277
21033648 29 17834671596320793816
21421861 104 17976006415884036481
21987440 362 15657673817351055733
22122407 14 16128371571304778681
23558518 356 18269840826434777173
23559900 14 18339635737043171328
3298306 158 16893996414397776989
463206 1 17982164823387776719
484985 159 16452009409100627634
508706 21 18269277859449231894
5104073 3 18128241308732239666
5309563 4 18053106404406638811
57527452 28 16558453280304526487
57527585 103 17823722882774384715
6004065 56 18056460967502060943
613672 6 18339073899576268759
81228 2 18337685113368655569
9709674 26 18271247118828251486

> <PUBCHEM_SHAPE_MULTIPOLES>
549.55
8.6
4.76
1.31
4.48
1.44
-0.03
-5.02
2.15
-3.42
-0.12
0.57
-0.12
0.79

> <PUBCHEM_SHAPE_SELFOVERLAP>
1262.97

> <PUBCHEM_SHAPE_VOLUME>
285.7

> <PUBCHEM_COORDINATE_TYPE>
2
5
10

$$$$
